10 ENGINEERED: YES
     RDKit          3D

 17 19  0  0  0  0  0  0  0  0999 V2000
   -5.1930   -3.8520   10.8650 C   0  0  0  0  0  0  0  0  0  0  0  0
   -4.3160   -2.6640   10.8890 C   0  0  0  0  0  0  0  0  0  0  0  0
   -3.1100   -2.8180   11.0010 O   0  0  0  0  0  0  0  0  0  0  0  0
   -4.8170   -1.4300   10.7380 O   0  0  0  0  0  0  0  0  0  0  0  0
   -6.5280   -3.7990   10.4730 C   0  0  0  0  0  0  0  0  0  0  0  0
   -4.6200   -5.0950   11.1580 C   0  0  0  0  0  0  0  0  0  0  0  0
   -7.2430   -5.0070   10.4410 C   0  0  0  0  0  0  0  0  0  0  0  0
   -5.3130   -6.2110   11.1290 N   0  0  0  0  0  0  0  0  0  0  0  0
   -6.5870   -6.2110   10.7770 C   0  0  0  0  0  0  0  0  0  0  0  0
   -8.6140   -5.3850   10.1180 C   0  0  0  0  0  0  0  0  0  0  0  0
   -7.5020   -7.2170   10.6680 N   0  0  0  0  0  0  0  0  0  0  0  0
   -8.7170   -6.6820   10.2570 N   0  0  0  0  0  0  0  0  0  0  0  0
   -7.2090   -8.6290   10.9530 C   0  0  1  0  0  0  0  0  0  0  0  0
   -8.1410   -9.2050   12.0350 C   0  0  0  0  0  0  0  0  0  0  0  0
   -7.3950   -9.5050    9.7020 C   0  0  0  0  0  0  0  0  0  0  0  0
   -8.2290  -10.7050   11.6970 C   0  0  0  0  0  0  0  0  0  0  0  0
   -8.2860  -10.6940   10.1420 C   0  0  0  0  0  0  0  0  0  0  0  0
  1  2  1  0
  2  3  2  0
  2  4  1  0
  5  1  2  0
  6  1  1  0
  5  7  1  0
  6  8  2  0
  9  7  2  0
 10  7  1  0
  9  8  1  0
  9 11  1  0
 10 12  2  0
 13 11  1  6
 11 12  1  0
 13 14  1  0
 13 15  1  0
 14 16  1  0
 15 17  1  0
 17 16  1  0
M  CHG  1   4  -1
M  END
