
#######################################################################
#
#                 Cambridge Crystallographic Data Centre
#                                CCDC
#
#######################################################################
#
# If this CIF has been generated from an entry in the Cambridge
# Structural Database, then it will include bibliographic, chemical,
# crystal, experimental, refinement or atomic coordinate data resulting
# from the CCDC's data processing and validation procedures.
#
#######################################################################

data_ACSALA07
_symmetry_cell_setting           monoclinic
_symmetry_space_group_name_H-M   'P 21/c'
_symmetry_Int_Tables_number      14
_space_group_name_Hall           '-P 2ybc'
loop_
_symmetry_equiv_pos_site_id
_symmetry_equiv_pos_as_xyz
1 x,y,z
2 -x,1/2+y,1/2-z
3 -x,-y,-z
4 x,1/2-y,1/2+z
_cell_length_a                   11.416(5)
_cell_length_b                   6.598(2)
_cell_length_c                   11.483(5)
_cell_angle_alpha                90
_cell_angle_beta                 95.60(3)
_cell_angle_gamma                90
_cell_volume                     860.803
loop_
_atom_site_label
_atom_site_type_symbol
_atom_site_fract_x
_atom_site_fract_y
_atom_site_fract_z
_atom_site_U_iso_or_equiv
_atom_site_thermal_displace_type
C1 C 0.1530(6) 0.5638(12) 0.0678(6) 0.0358 Uani
C2 C 0.2464(6) 0.4885(12) 0.0087(6) 0.0390 Uani
C3 C 0.2982(6) 0.3070(13) 0.0415(8) 0.0485 Uani
C4 C 0.2602(7) 0.1952(14) 0.1344(8) 0.0507 Uani
C5 C 0.1693(7) 0.2697(13) 0.1918(7) 0.0463 Uani
C6 C 0.1168(7) 0.4489(13) 0.1599(7) 0.0415 Uani
C7 C 0.0904(6) 0.7582(11) 0.0382(6) 0.0372 Uani
C8 C 0.3664(6) 0.7360(13) -0.0628(7) 0.0451 Uani
C9 C 0.3966(10) 0.835(2) -0.1720(10) 0.0624 Uani
O1 O 0.1200(9) 0.8626(17) -0.0507(9) 0.0496 Uani
O2 O 0.0096(8) 0.8126(15) 0.0955(9) 0.0512 Uani
O3 O 0.2857(8) 0.5877(15) -0.0879(7) 0.0422 Uani
O4 O 0.4018(9) 0.7794(18) 0.0354(9) 0.0612 Uani
H1 H 0.3689(16) 0.247(3) -0.013(2) 0.0811 Uani
H2 H 0.3028(16) 0.053(3) 0.163(2) 0.0740 Uani
H3 H 0.1396(16) 0.177(3) 0.2700(17) 0.0716 Uani
H4 H 0.0469(19) 0.508(3) 0.2061(18) 0.0677 Uani
H5 H 0.459(2) 0.955(5) -0.149(2) 0.1127 Uani
H6 H 0.324(3) 0.883(8) -0.228(3) 0.1714 Uani
H7 H 0.432(5) 0.728(6) -0.230(3) 0.1674 Uani
H8 H 0.0647(18) 0.993(4) -0.0657(17) 0.0755 Uani
loop_
_atom_site_aniso_label
_atom_site_aniso_U_11
_atom_site_aniso_U_22
_atom_site_aniso_U_33
_atom_site_aniso_U_23
_atom_site_aniso_U_13
_atom_site_aniso_U_12
C1 0.037(3) 0.035(4) 0.035(4) -0.004(3) 0.001(3) 0.003(3)
C2 0.036(4) 0.043(4) 0.037(4) -0.005(3) -0.002(3) 0.002(3)
C3 0.039(4) 0.043(5) 0.065(5) -0.006(4) 0.013(4) 0.008(4)
C4 0.053(4) 0.039(5) 0.062(5) 0.004(4) 0.015(4) 0.004(4)
C5 0.049(4) 0.043(5) 0.048(4) 0.015(4) 0.010(3) 0.003(4)
C6 0.039(4) 0.045(4) 0.041(4) 0.010(4) 0.007(4) -0.002(4)
C7 0.037(3) 0.035(4) 0.039(4) 0.002(4) 0.001(3) 0.000(3)
C8 0.040(4) 0.053(5) 0.042(4) -0.001(4) 0.003(3) 0.001(4)
C9 0.059(6) 0.075(7) 0.053(6) 0.009(5) 0.004(5) -0.017(6)
O1 0.055(5) 0.047(5) 0.051(6) 0.016(5) 0.026(5) 0.014(5)
O2 0.057(5) 0.045(5) 0.053(5) 0.015(4) 0.012(5) 0.028(5)
O3 0.044(4) 0.051(5) 0.032(4) -0.005(4) 0.006(4) -0.001(4)
O4 0.067(6) 0.067(7) 0.048(5) -0.003(5) -0.003(5) -0.022(6)
H1 0.070(11) 0.081(13) 0.098(13) -0.010(12) 0.037(11) 0.042(11)
H2 0.066(11) 0.051(10) 0.104(16) 0.009(10) 0.003(10) 0.004(9)
H3 0.083(12) 0.062(10) 0.073(11) 0.042(9) 0.024(10) 0.005(9)
H4 0.079(11) 0.049(9) 0.076(12) 0.016(9) 0.012(11) 0.011(9)
H5 0.107(16) 0.14(2) 0.093(16) -0.008(16) 0.020(14) -0.080(19)
H6 0.11(2) 0.24(5) 0.15(3) 0.12(3) -0.06(2) -0.07(3)
H7 0.31(6) 0.12(3) 0.09(2) 0.00(2) 0.11(3) -0.05(3)
H8 0.069(11) 0.100(16) 0.060(11) 0.015(11) 0.019(9) -0.007(12)

#END
